*******************************************************************************

         NASA-GLENN CHEMICAL EQUILIBRIUM PROGRAM CEA2, FEBRUARY 5, 2004
                   BY  BONNIE MCBRIDE AND SANFORD GORDON
      REFS: NASA RP-1311, PART I, 1994 AND NASA RP-1311, PART II, 1996

 *******************************************************************************



  
 ### CEA analysis performed on Tue 31-May-2022 10:28:57
  
 # Problem Type: "Rocket" (Infinite Area Combustor)
  
 prob case=NHwang3105V1___2565 ro equilibrium
  
 # Pressure (1 value):
 p,bar= 30
 # Supersonic Area Ratio (11 values):
 supar= 100, 36, 25, 16, 9, 4, 3, 2.5, 2, 1.5, 1.25
  
 # Oxidizer/Fuel Wt. ratio (1 value):
 o/f= 4.5
  
 # You selected the following fuels and oxidizers:
 reac
 fuel paraffin          wt%=100.0000
 oxid N2O4              wt%= 35.0000
 oxid NO                wt%= 30.0000
 oxid NO2               wt%= 35.0000
  
 # You selected these options for output:
 # short version of output
 output short
 # Proportions of any products will be expressed as Mass Fractions.
 output massf
 # Heat will be expressed as siunits
 output siunits
  
 # Input prepared by this script:/var/www/sites/cearun.grc.nasa.gov/cgi-bin/CEARU
 N/prepareInputFile.cgi
  
 ### IMPORTANT:  The following line is the end of your CEA input file!
 end





              THEORETICAL ROCKET PERFORMANCE ASSUMING EQUILIBRIUM

           COMPOSITION DURING EXPANSION FROM INFINITE AREA COMBUSTOR

 Pin =   435.1 PSIA
 CASE = NHwang3105V1___

             REACTANT                    WT FRACTION      ENERGY      TEMP
                                          (SEE NOTE)     KJ/KG-MOL      K  
 FUEL        paraffin                     1.0000000  -1860600.000    298.150
 OXIDANT     N2O4                         0.3500000         0.000      0.000
 OXIDANT     NO                           0.3000000         0.000      0.000
 OXIDANT     NO2                          0.3500000         0.000      0.000

 O/F=    4.50000  %FUEL= 18.181818  R,EQ.RATIO= 1.141275  PHI,EQ.RATIO= 1.141275

                 CHAMBER   THROAT     EXIT     EXIT     EXIT     EXIT     EXIT     EXIT
 Pinf/P            1.0000   1.7273  1353.07   361.75   224.70   124.93   58.425   19.915
 P, BAR            30.000   17.368  0.02217  0.08293  0.13351  0.24013  0.51348   1.5064
 T, K             3344.49  3182.39  1299.08  1647.95  1792.25  1981.57  2230.24  2537.74
 RHO, KG/CU M    2.8705 0 1.7693 0 5.8958-3 1.7383-2 2.5730-2 4.1836-2 7.9286-2 2.0205-1
 H, KJ/KG         -337.69  -891.32 -5323.59 -4763.24 -4526.20 -4205.62 -3741.34 -2990.91
 U, KJ/KG        -1382.82 -1872.96 -5699.65 -5240.32 -5045.11 -4779.60 -4388.98 -3736.45
 G, KJ/KG        -34556.0 -33451.1 -18614.8 -21623.8 -22863.1 -24479.6 -26559.5 -28955.1
 S, KJ/(KG)(K)    10.2312  10.2312  10.2312  10.2312  10.2312  10.2312  10.2312  10.2312

 M, (1/n)          26.607   26.955   28.722   28.721   28.718   28.705   28.633   28.302
 (dLV/dLP)t      -1.03109 -1.02746 -1.00000 -1.00002 -1.00007 -1.00032 -1.00187 -1.00884
 (dLV/dLT)p        1.6032   1.5623   1.0000   1.0007   1.0025   1.0103   1.0555   1.2310
 Cp, KJ/(KG)(K)    5.4612   5.3427   1.5888   1.6300   1.6632   1.7573   2.1680   3.4988
 GAMMAs            1.1312   1.1280   1.2228   1.2163   1.2119   1.2018   1.1728   1.1343
 SON VEL,M/SEC     1087.3   1052.3    678.1    761.8    793.0    830.6    871.5    919.6
 MACH NUMBER        0.000    1.000    4.657    3.906    3.650    3.349    2.994    2.505

 PERFORMANCE PARAMETERS

 Ae/At                      1.0000   100.00   36.000   25.000   16.000   9.0000   4.0000
 CSTAR, M/SEC               1611.4   1611.4   1611.4   1611.4   1611.4   1611.4   1611.4
 CF                         0.6530   1.9597   1.8463   1.7962   1.7261   1.6192   1.4296
 Ivac, M/SEC                1985.1   3276.9   3135.4   3073.6   2987.7   2857.3   2627.2
 Isp, M/SEC                 1052.3   3157.8   2975.1   2894.3   2781.3   2609.1   2303.6


 MASS FRACTIONS

 *CO              0.19605  0.18197  0.08524  0.09881  0.10217  0.10559  0.11046  0.12501
 *CO2             0.27504  0.29718  0.44917  0.42784  0.42257  0.41719  0.40954  0.38669
 COOH             0.00001  0.00001  0.00000  0.00000  0.00000  0.00000  0.00000  0.00000
 *H               0.00051  0.00042  0.00000  0.00000  0.00001  0.00002  0.00005  0.00013
 HNO              0.00001  0.00000  0.00000  0.00000  0.00000  0.00000  0.00000  0.00000
 HO2              0.00007  0.00005  0.00000  0.00000  0.00000  0.00000  0.00000  0.00000
 *H2              0.00251  0.00230  0.00329  0.00231  0.00207  0.00183  0.00165  0.00165
 H2O              0.16077  0.16591  0.17336  0.18207  0.18417  0.18600  0.18664  0.18331
 H2O2             0.00001  0.00000  0.00000  0.00000  0.00000  0.00000  0.00000  0.00000
 *N               0.00001  0.00000  0.00000  0.00000  0.00000  0.00000  0.00000  0.00000
 *NO              0.01651  0.01297  0.00000  0.00000  0.00001  0.00006  0.00046  0.00248
 NO2              0.00002  0.00001  0.00000  0.00000  0.00000  0.00000  0.00000  0.00000
 *N2              0.28122  0.28288  0.28895  0.28895  0.28894  0.28892  0.28873  0.28779
 *O               0.00595  0.00449  0.00000  0.00000  0.00000  0.00000  0.00006  0.00058
 *OH              0.02816  0.02348  0.00000  0.00002  0.00007  0.00035  0.00175  0.00653
 *O2              0.03312  0.02831  0.00000  0.00000  0.00000  0.00004  0.00066  0.00584

  * THERMODYNAMIC PROPERTIES FITTED TO 20000.K

 NOTE. WEIGHT FRACTION OF FUEL IN TOTAL FUELS AND OF OXIDANT IN TOTAL OXIDANTS










              THEORETICAL ROCKET PERFORMANCE ASSUMING EQUILIBRIUM

           COMPOSITION DURING EXPANSION FROM INFINITE AREA COMBUSTOR

 Pin =   435.1 PSIA
 CASE = NHwang3105V1___

             REACTANT                    WT FRACTION      ENERGY      TEMP
                                          (SEE NOTE)     KJ/KG-MOL      K  
 FUEL        paraffin                     1.0000000  -1860600.000    298.150
 OXIDANT     N2O4                         0.3500000         0.000      0.000
 OXIDANT     NO                           0.3000000         0.000      0.000
 OXIDANT     NO2                          0.3500000         0.000      0.000

 O/F=    4.50000  %FUEL= 18.181818  R,EQ.RATIO= 1.141275  PHI,EQ.RATIO= 1.141275

                 CHAMBER   THROAT     EXIT     EXIT     EXIT     EXIT     EXIT
 Pinf/P            1.0000   1.7273   13.439   10.399   7.5081   4.7731   3.4412
 P, BAR            30.000   17.368   2.2323   2.8849   3.9957   6.2853   8.7179
 T, K             3344.49  3182.39  2639.38  2704.76  2787.81  2904.86  2991.46
 RHO, KG/CU M    2.8705 0 1.7693 0 2.8606-1 3.5912-1 4.7961-1 7.1742-1 9.5956-1
 H, KJ/KG         -337.69  -891.32 -2690.84 -2487.77 -2221.28 -1834.23 -1542.33
 U, KJ/KG        -1382.82 -1872.96 -3471.18 -3291.09 -3054.39 -2710.31 -2450.85
 G, KJ/KG        -34556.0 -33451.1 -29695.0 -30160.9 -30744.0 -31554.5 -32148.7
 S, KJ/(KG)(K)    10.2312  10.2312  10.2312  10.2312  10.2312  10.2312  10.2312

 M, (1/n)          26.607   26.955   28.122   27.995   27.822   27.569   27.377
 (dLV/dLP)t      -1.03109 -1.02746 -1.01205 -1.01414 -1.01673 -1.02020 -1.02262
 (dLV/dLT)p        1.6032   1.5623   1.3019   1.3449   1.3950   1.4565   1.4951
 Cp, KJ/(KG)(K)    5.4612   5.3427   3.9736   4.2446   4.5428   4.8772   5.0665
 GAMMAs            1.1312   1.1280   1.1287   1.1267   1.1252   1.1248   1.1253
 SON VEL,M/SEC     1087.3   1052.3    938.5    951.4    968.2    992.7   1011.1
 MACH NUMBER        0.000    1.000    2.312    2.180    2.005    1.743    1.535

 PERFORMANCE PARAMETERS

 Ae/At                      1.0000   3.0000   2.5000   2.0000   1.5000   1.2500
 CSTAR, M/SEC               1611.4   1611.4   1611.4   1611.4   1611.4   1611.4
 CF                         0.6530   1.3463   1.2869   1.2045   1.0737   0.9633
 Ivac, M/SEC                1985.1   2529.1   2461.1   2370.2   2236.4   2137.5
 Isp, M/SEC                 1052.3   2169.4   2073.7   1940.9   1730.0   1552.2


 MASS FRACTIONS

 *CO              0.19605  0.18197  0.13272  0.13821  0.14559  0.15638  0.16447
 *CO2             0.27504  0.29718  0.37456  0.36593  0.35435  0.33738  0.32468
 COOH             0.00001  0.00001  0.00000  0.00000  0.00000  0.00000  0.00000
 *H               0.00051  0.00042  0.00017  0.00019  0.00023  0.00028  0.00032
 HNO              0.00001  0.00000  0.00000  0.00000  0.00000  0.00000  0.00000
 HO2              0.00007  0.00005  0.00000  0.00001  0.00001  0.00002  0.00002
 *H2              0.00251  0.00230  0.00172  0.00177  0.00185  0.00197  0.00207
 H2O              0.16077  0.16591  0.18121  0.17967  0.17755  0.17431  0.17177
 H2O2             0.00001  0.00000  0.00000  0.00000  0.00000  0.00000  0.00000
 *N               0.00001  0.00000  0.00000  0.00000  0.00000  0.00000  0.00000
 *NO              0.01651  0.01297  0.00363  0.00449  0.00570  0.00762  0.00917
 NO2              0.00002  0.00001  0.00000  0.00000  0.00000  0.00001  0.00001
 *N2              0.28122  0.28288  0.28725  0.28685  0.28628  0.28539  0.28466
 *O               0.00595  0.00449  0.00094  0.00123  0.00166  0.00237  0.00297
 *OH              0.02816  0.02348  0.00879  0.01037  0.01249  0.01562  0.01803
 *O2              0.03312  0.02831  0.00900  0.01126  0.01429  0.01865  0.02181

  * THERMODYNAMIC PROPERTIES FITTED TO 20000.K

 NOTE. WEIGHT FRACTION OF FUEL IN TOTAL FUELS AND OF OXIDANT IN TOTAL OXIDANTS
