*******************************************************************************

         NASA-GLENN CHEMICAL EQUILIBRIUM PROGRAM CEA2, FEBRUARY 5, 2004
                   BY  BONNIE MCBRIDE AND SANFORD GORDON
      REFS: NASA RP-1311, PART I, 1994 AND NASA RP-1311, PART II, 1996

 *******************************************************************************



  
 ### CEA analysis performed on Thu 02-Jun-2022 07:48:58
  
 # Problem Type: "Rocket" (Infinite Area Combustor)
  
 prob case=NHwang0206V1___9546 ro equilibrium
  
 # Pressure (1 value):
 p,bar= 7.5
 # Supersonic Area Ratio (11 values):
 supar= 100, 36, 25, 16, 9, 4, 3, 2.5, 2, 1.5, 1.25
  
 # Oxidizer/Fuel Wt. ratio (1 value):
 o/f= 4.5
  
 # You selected the following fuels and oxidizers:
 reac
 fuel paraffin          wt%=100.0000
 oxid N2O4              wt%= 35.0000
 oxid NO                wt%= 30.0000
 oxid NO2               wt%= 35.0000
  
 # You selected these options for output:
 # short version of output
 output short
 # Proportions of any products will be expressed as Mass Fractions.
 output massf
 # Heat will be expressed as siunits
 output siunits
  
 # Input prepared by this script:/var/www/sites/cearun.grc.nasa.gov/cgi-bin/CEARU
 N/prepareInputFile.cgi
  
 ### IMPORTANT:  The following line is the end of your CEA input file!
 end





              THEORETICAL ROCKET PERFORMANCE ASSUMING EQUILIBRIUM

           COMPOSITION DURING EXPANSION FROM INFINITE AREA COMBUSTOR

 Pin =   108.8 PSIA
 CASE = NHwang0206V1___

             REACTANT                    WT FRACTION      ENERGY      TEMP
                                          (SEE NOTE)     KJ/KG-MOL      K  
 FUEL        paraffin                     1.0000000  -1860600.000    298.150
 OXIDANT     N2O4                         0.3500000         0.000      0.000
 OXIDANT     NO                           0.3000000         0.000      0.000
 OXIDANT     NO2                          0.3500000         0.000      0.000

 O/F=    4.50000  %FUEL= 18.181818  R,EQ.RATIO= 1.141275  PHI,EQ.RATIO= 1.141275

                 CHAMBER   THROAT     EXIT     EXIT     EXIT     EXIT     EXIT     EXIT
 Pinf/P            1.0000   1.7230  1282.54   342.14   212.52   118.60   56.286   19.551
 P, BAR            7.5000   4.3528  0.00585  0.02192  0.03529  0.06324  0.13325  0.38362
 T, K             3185.27  3042.87  1340.95  1699.51  1845.14  2026.98  2237.28  2484.28
 RHO, KG/CU M    7.4290-1 4.5756-1 1.5064-3 4.4550-3 6.6038-3 1.0757-2 2.0418-2 5.2093-2
 H, KJ/KG         -337.69  -870.91 -5256.96 -4677.74 -4433.45 -4106.12 -3643.44 -2908.75
 U, KJ/KG        -1347.25 -1822.22 -5645.15 -5169.79 -4967.84 -4694.01 -4296.03 -3645.17
 G, KJ/KG        -34316.7 -33330.9 -19561.6 -22807.3 -24116.6 -25729.0 -27509.7 -29409.9
 S, KJ/(KG)(K)    10.6675  10.6675  10.6675  10.6675  10.6675  10.6675  10.6675  10.6675

 M, (1/n)          26.233   26.595   28.722   28.718   28.708   28.668   28.505   28.049
 (dLV/dLP)t      -1.03609 -1.03237 -1.00000 -1.00007 -1.00025 -1.00109 -1.00480 -1.01361
 (dLV/dLT)p        1.7267   1.6850   1.0001   1.0025   1.0084   1.0348   1.1409   1.3585
 Cp, KJ/(KG)(K)    6.4426   6.3258   1.5924   1.6539   1.7278   1.9910   2.9042   4.5317
 GAMMAs            1.1243   1.1210   1.2222   1.2134   1.2051   1.1833   1.1441   1.1200
 SON VEL,M/SEC     1065.4   1032.7    688.8    772.7    802.5    834.0    864.1    908.2
 MACH NUMBER        0.000    1.000    4.554    3.813    3.566    3.292    2.976    2.497

 PERFORMANCE PARAMETERS

 Ae/At                      1.0000   100.00   36.000   25.000   16.000   9.0000   4.0000
 CSTAR, M/SEC               1587.3   1587.3   1587.3   1587.3   1587.3   1587.3   1587.3
 CF                         0.6506   1.9761   1.8562   1.8032   1.7296   1.6199   1.4286
 Ivac, M/SEC                1953.9   3260.4   3113.2   3048.8   2959.5   2825.1   2592.4
 Isp, M/SEC                 1032.7   3136.6   2946.2   2862.1   2745.3   2571.3   2267.6


 MASS FRACTIONS

 *CO              0.20671  0.19280  0.08746  0.10011  0.10324  0.10689  0.11438  0.13357
 *CO2             0.25831  0.28016  0.44568  0.42580  0.42088  0.41515  0.40338  0.37323
 *H               0.00072  0.00060  0.00000  0.00001  0.00002  0.00004  0.00010  0.00022
 HO2              0.00005  0.00003  0.00000  0.00000  0.00000  0.00000  0.00000  0.00000
 *H2              0.00281  0.00259  0.00313  0.00221  0.00199  0.00180  0.00171  0.00184
 H2O              0.15478  0.16027  0.17479  0.18286  0.18464  0.18574  0.18469  0.17958
 *NO              0.01547  0.01238  0.00000  0.00001  0.00003  0.00019  0.00092  0.00307
 NO2              0.00001  0.00001  0.00000  0.00000  0.00000  0.00000  0.00000  0.00000
 *N2              0.28172  0.28316  0.28895  0.28895  0.28893  0.28886  0.28852  0.28752
 *O               0.00832  0.00646  0.00000  0.00000  0.00000  0.00003  0.00025  0.00120
 *OH              0.03091  0.02623  0.00000  0.00006  0.00024  0.00101  0.00351  0.00902
 *O2              0.04018  0.03529  0.00000  0.00000  0.00002  0.00029  0.00254  0.01076

  * THERMODYNAMIC PROPERTIES FITTED TO 20000.K

 NOTE. WEIGHT FRACTION OF FUEL IN TOTAL FUELS AND OF OXIDANT IN TOTAL OXIDANTS










              THEORETICAL ROCKET PERFORMANCE ASSUMING EQUILIBRIUM

           COMPOSITION DURING EXPANSION FROM INFINITE AREA COMBUSTOR

 Pin =   108.8 PSIA
 CASE = NHwang0206V1___

             REACTANT                    WT FRACTION      ENERGY      TEMP
                                          (SEE NOTE)     KJ/KG-MOL      K  
 FUEL        paraffin                     1.0000000  -1860600.000    298.150
 OXIDANT     N2O4                         0.3500000         0.000      0.000
 OXIDANT     NO                           0.3000000         0.000      0.000
 OXIDANT     NO2                          0.3500000         0.000      0.000

 O/F=    4.50000  %FUEL= 18.181818  R,EQ.RATIO= 1.141275  PHI,EQ.RATIO= 1.141275

                 CHAMBER   THROAT     EXIT     EXIT     EXIT     EXIT     EXIT
 Pinf/P            1.0000   1.7230   13.245   10.270   7.4317   4.7372   3.4213
 P, BAR            7.5000   4.3528  0.56626  0.73030   1.0092   1.5832   2.1922
 T, K             3185.27  3042.87  2569.84  2625.74  2697.45  2799.40  2875.23
 RHO, KG/CU M    7.4290-1 4.5756-1 7.3785-2 9.2656-2 1.2379-1 1.8528-1 2.4792-1
 H, KJ/KG         -337.69  -870.91 -2615.97 -2418.11 -2158.81 -1782.95 -1500.06
 U, KJ/KG        -1347.25 -1822.22 -3383.41 -3206.28 -2974.04 -2637.43 -2384.28
 G, KJ/KG        -34316.7 -33330.9 -30029.8 -30428.3 -30934.0 -31645.7 -32171.7
 S, KJ/(KG)(K)    10.6675  10.6675  10.6675  10.6675  10.6675  10.6675  10.6675

 M, (1/n)          26.233   26.595   27.842   27.699   27.511   27.239   27.037
 (dLV/dLP)t      -1.03609 -1.03237 -1.01689 -1.01898 -1.02156 -1.02503 -1.02746
 (dLV/dLT)p        1.7267   1.6850   1.4292   1.4712   1.5200   1.5799   1.6179
 Cp, KJ/(KG)(K)    6.4426   6.3258   5.0002   5.2620   5.5489   5.8715   6.0553
 GAMMAs            1.1243   1.1210   1.1175   1.1167   1.1164   1.1170   1.1179
 SON VEL,M/SEC     1065.4   1032.7    926.1    938.2    954.0    977.0    994.2
 MACH NUMBER        0.000    1.000    2.305    2.174    2.000    1.740    1.534

 PERFORMANCE PARAMETERS

 Ae/At                      1.0000   3.0000   2.5000   2.0000   1.5000   1.2500
 CSTAR, M/SEC               1587.3   1587.3   1587.3   1587.3   1587.3   1587.3
 CF                         0.6506   1.3448   1.2851   1.2024   1.0711   0.9606
 Ivac, M/SEC                1953.9   2494.1   2426.2   2335.6   2202.7   2104.6
 Isp, M/SEC                 1032.7   2134.6   2039.8   1908.5   1700.1   1524.7


 MASS FRACTIONS

 *CO              0.20671  0.19280  0.14224  0.14817  0.15595  0.16709  0.17530
 *CO2             0.25831  0.28016  0.35961  0.35029  0.33807  0.32056  0.30767
 *H               0.00072  0.00060  0.00027  0.00030  0.00035  0.00042  0.00047
 HO2              0.00005  0.00003  0.00000  0.00000  0.00001  0.00001  0.00002
 *H2              0.00281  0.00259  0.00193  0.00200  0.00209  0.00223  0.00234
 H2O              0.15478  0.16027  0.17708  0.17532  0.17293  0.16936  0.16659
 *NO              0.01547  0.01238  0.00413  0.00491  0.00599  0.00769  0.00906
 NO2              0.00001  0.00001  0.00000  0.00000  0.00000  0.00000  0.00000
 *N2              0.28172  0.28316  0.28702  0.28666  0.28615  0.28536  0.28472
 *O               0.00832  0.00646  0.00174  0.00216  0.00275  0.00371  0.00450
 *OH              0.03091  0.02623  0.01137  0.01300  0.01515  0.01833  0.02076
 *O2              0.04018  0.03529  0.01460  0.01720  0.02056  0.02524  0.02858

  * THERMODYNAMIC PROPERTIES FITTED TO 20000.K

 NOTE. WEIGHT FRACTION OF FUEL IN TOTAL FUELS AND OF OXIDANT IN TOTAL OXIDANTS
