 *******************************************************************************

         NASA-GLENN CHEMICAL EQUILIBRIUM PROGRAM CEA2, FEBRUARY 5, 2004
                   BY  BONNIE MCBRIDE AND SANFORD GORDON
      REFS: NASA RP-1311, PART I, 1994 AND NASA RP-1311, PART II, 1996

 *******************************************************************************



  
 ### CEA analysis performed on Mon 30-May-2022 13:57:19
  
 # Problem Type: "Rocket" (Infinite Area Combustor)
  
 prob case=NHwang3005v1___8336 ro equilibrium
  
 # Pressure (1 value):
 p,atm= 30
 # Chamber/Exit Pressure Ratio (10 values):
 pi/p= 1, 2, 4, 8, 16, 32, 64, 128, 256, 512
 # Subsonic Area Ratio (4 values):
 subar= 49, 12.25, 5.44, 3.06
 # Supersonic Area Ratio (4 values):
 supar= 449.44, 112.36, 49.93, 28.09
  
 # Oxidizer/Fuel Wt. ratio (1 value):
 o/f= 4.5
  
 # You selected the following fuels and oxidizers:
 reac
 fuel paraffin          wt%=100.0000
 oxid N2O4              wt%= 35.0000
 oxid NO                wt%= 30.0000
 oxid NO2               wt%= 35.0000
  
 # You selected these options for output:
 # short version of output
 output short
 # Proportions of any products will be expressed as Mass Fractions.
 output massf
 # Heat will be expressed as siunits
 output siunits
  
 # Input prepared by this script:/var/www/sites/cearun.grc.nasa.gov/cgi-bin/CEARU
 N/prepareInputFile.cgi
  
 ### IMPORTANT:  The following line is the end of your CEA input file!
 end





              THEORETICAL ROCKET PERFORMANCE ASSUMING EQUILIBRIUM

           COMPOSITION DURING EXPANSION FROM INFINITE AREA COMBUSTOR

 Pin =   440.9 PSIA
 CASE = NHwang3005v1___

             REACTANT                    WT FRACTION      ENERGY      TEMP
                                          (SEE NOTE)     KJ/KG-MOL      K  
 FUEL        paraffin                     1.0000000  -1860600.000    298.150
 OXIDANT     N2O4                         0.3500000         0.000      0.000
 OXIDANT     NO                           0.3000000         0.000      0.000
 OXIDANT     NO2                          0.3500000         0.000      0.000

 O/F=    4.50000  %FUEL= 18.181818  R,EQ.RATIO= 1.141275  PHI,EQ.RATIO= 1.141275

                 CHAMBER   THROAT     EXIT     EXIT     EXIT     EXIT     EXIT     EXIT
 Pinf/P            1.0000   1.7273   1.0000   2.0000   4.0000   8.0000   16.000   32.000
 P, BAR            30.398   17.598   30.398   15.199   7.5994   3.7997   1.8998  0.94992
 T, K             3346.01  3183.71  3346.01  3141.93  2952.42  2772.41  2595.19  2409.73
 RHO, KG/CU M    2.9076 0 1.7922 0 2.9076 0 1.5738 0 8.5036-1 4.5923-1 2.4835-1 1.3504-1
 H, KJ/KG         -337.69  -891.51  -337.69 -1034.24 -1678.28 -2274.47 -2826.20 -3335.17
 U, KJ/KG        -1383.15 -1873.43 -1383.15 -2000.00 -2571.94 -3101.88 -3591.17 -4038.59
 G, KJ/KG        -34557.7 -33451.8 -34557.7 -33167.2 -31873.0 -30628.3 -29367.5 -27979.8
 S, KJ/(KG)(K)    10.2271  10.2271  10.2271  10.2271  10.2271  10.2271  10.2271  10.2271

 M, (1/n)          26.611   26.958   26.611   27.050   27.469   27.860   28.207   28.483
 (dLV/dLP)t      -1.03105 -1.02742 -1.03105 -1.02641 -1.02147 -1.01618 -1.01058 -1.00518
 (dLV/dLT)p        1.6021   1.5612   1.6021   1.5484   1.4768   1.3845   1.2699   1.1428
 Cp, KJ/(KG)(K)    5.4527   5.3342   5.4527   5.2881   4.9758   4.4798   3.7624   2.8599
 GAMMAs            1.1313   1.1280   1.1313   1.1273   1.1251   1.1255   1.1309   1.1469
 SON VEL,M/SEC     1087.5   1052.4   1087.5   1043.4   1002.7    965.0    930.1    898.2
 MACH NUMBER        0.000    1.000     -nan    1.131    1.633    2.039    2.399    2.726

 PERFORMANCE PARAMETERS

 Ae/At                      1.0000     -nan   1.0154   1.3546   2.0869   3.4043   5.7045
 CSTAR, M/SEC               1611.6   1611.6   1611.6   1611.6   1611.6   1611.6   1611.6
 CF                         0.6530     -nan   0.7324   1.0160   1.2212   1.3843   1.5193
 Ivac, M/SEC                1985.4     -nan   1998.5   2183.2   2388.5   2573.8   2735.7
 Isp, M/SEC                 1052.4     -nan   1180.3   1637.4   1968.1   2230.9   2448.5


 MASS FRACTIONS

 *CO              0.19594  0.18186  0.19594  0.17810  0.16062  0.14402  0.12910  0.11718
 *CO2             0.27522  0.29735  0.27522  0.30326  0.33072  0.35680  0.38025  0.39898
 COOH             0.00001  0.00001  0.00001  0.00000  0.00000  0.00000  0.00000  0.00000
 *H               0.00051  0.00042  0.00051  0.00040  0.00030  0.00022  0.00015  0.00009
 HNO              0.00001  0.00000  0.00001  0.00000  0.00000  0.00000  0.00000  0.00000
 HO2              0.00007  0.00005  0.00007  0.00004  0.00002  0.00001  0.00000  0.00000
 *H2              0.00250  0.00230  0.00250  0.00225  0.00202  0.00183  0.00169  0.00161
 H2O              0.16083  0.16596  0.16083  0.16727  0.17300  0.17802  0.18222  0.18533
 H2O2             0.00001  0.00000  0.00001  0.00000  0.00000  0.00000  0.00000  0.00000
 *N               0.00001  0.00000  0.00001  0.00000  0.00000  0.00000  0.00000  0.00000
 *NO              0.01652  0.01297  0.01652  0.01210  0.00844  0.00545  0.00309  0.00136
 NO2              0.00002  0.00001  0.00002  0.00001  0.00001  0.00000  0.00000  0.00000
 *N2              0.28121  0.28288  0.28121  0.28329  0.28500  0.28640  0.28751  0.28831
 *O               0.00593  0.00447  0.00593  0.00412  0.00267  0.00156  0.00076  0.00026
 *OH              0.02813  0.02345  0.02813  0.02225  0.01688  0.01204  0.00774  0.00408
 *O2              0.03305  0.02824  0.03305  0.02689  0.02030  0.01364  0.00749  0.00278

  * THERMODYNAMIC PROPERTIES FITTED TO 20000.K

 NOTE. WEIGHT FRACTION OF FUEL IN TOTAL FUELS AND OF OXIDANT IN TOTAL OXIDANTS










              THEORETICAL ROCKET PERFORMANCE ASSUMING EQUILIBRIUM

           COMPOSITION DURING EXPANSION FROM INFINITE AREA COMBUSTOR

 Pin =   440.9 PSIA
 CASE = NHwang3005v1___

             REACTANT                    WT FRACTION      ENERGY      TEMP
                                          (SEE NOTE)     KJ/KG-MOL      K  
 FUEL        paraffin                     1.0000000  -1860600.000    298.150
 OXIDANT     N2O4                         0.3500000         0.000      0.000
 OXIDANT     NO                           0.3000000         0.000      0.000
 OXIDANT     NO2                          0.3500000         0.000      0.000

 O/F=    4.50000  %FUEL= 18.181818  R,EQ.RATIO= 1.141275  PHI,EQ.RATIO= 1.141275

                 CHAMBER   THROAT     EXIT     EXIT     EXIT     EXIT     EXIT     EXIT
 Pinf/P            1.0000   1.7273   64.000   128.00   256.00   512.00   1.0000   1.0013
 P, BAR            30.398   17.598  0.47496  0.23748  0.11874  0.05937   30.396   30.357
 T, K             3346.01  3183.71  2201.17  1973.27  1751.48  1548.54  3345.99  3345.59
 RHO, KG/CU M    2.9076 0 1.7922 0 7.4346-2 4.1550-2 2.3417-2 1.3244-2 2.9075 0 2.9041 0
 H, KJ/KG         -337.69  -891.51 -3800.62 -4220.11 -4593.65 -4924.40  -337.74  -339.10
 U, KJ/KG        -1383.15 -1873.43 -4439.47 -4791.66 -5100.73 -5372.69 -1383.19 -1384.39
 G, KJ/KG        -34557.7 -33451.8 -26312.3 -24401.0 -22506.2 -20761.5 -34557.7 -34554.9
 S, KJ/(KG)(K)    10.2271  10.2271  10.2271  10.2271  10.2271  10.2271  10.2271  10.2271

 M, (1/n)          26.611   26.958   28.648   28.706   28.719   28.721   26.611   26.612
 (dLV/dLP)t      -1.03105 -1.02742 -1.00153 -1.00030 -1.00005 -1.00001 -1.03105 -1.03104
 (dLV/dLT)p        1.6021   1.5612   1.0459   1.0097   1.0018   1.0003   1.6021   1.6020
 Cp, KJ/(KG)(K)    5.4527   5.3342   2.0862   1.7502   1.6517   1.6145   5.4527   5.4525
 GAMMAs            1.1313   1.1280   1.1774   1.2025   1.2134   1.2186   1.1313   1.1312
 SON VEL,M/SEC     1087.5   1052.4    867.3    829.0    784.4    739.1   1087.5   1087.4
 MACH NUMBER        0.000    1.000    3.034    3.361    3.719    4.098    0.009    0.049

 PERFORMANCE PARAMETERS

 Ae/At                      1.0000   9.6402   16.291   27.609   47.022   49.000   12.250
 CSTAR, M/SEC               1611.6   1611.6   1611.6   1611.6   1611.6   1611.6   1611.6
 CF                         0.6530   1.6330   1.7291   1.8103   1.8794   0.0058   0.0329
 Ivac, M/SEC                1985.4   2874.5   2991.7   3091.3   3176.8 111539.5  19770.1
 Isp, M/SEC                 1052.4   2631.7   2786.5   2917.5   3028.8      9.4     53.0


 MASS FRACTIONS

 *CO              0.19594  0.18186  0.10971  0.10545  0.10131  0.09590  0.19594  0.19591
 *CO2             0.27522  0.29735  0.41072  0.41741  0.42392  0.43241  0.27522  0.27527
 COOH             0.00001  0.00001  0.00000  0.00000  0.00000  0.00000  0.00001  0.00001
 *H               0.00051  0.00042  0.00004  0.00002  0.00000  0.00000  0.00051  0.00051
 HNO              0.00001  0.00000  0.00000  0.00000  0.00000  0.00000  0.00001  0.00001
 HO2              0.00007  0.00005  0.00000  0.00000  0.00000  0.00000  0.00007  0.00007
 *H2              0.00250  0.00230  0.00166  0.00184  0.00213  0.00252  0.00250  0.00250
 H2O              0.16083  0.16596  0.18671  0.18594  0.18364  0.18021  0.16083  0.16084
 H2O2             0.00001  0.00000  0.00000  0.00000  0.00000  0.00000  0.00001  0.00001
 *N               0.00001  0.00000  0.00000  0.00000  0.00000  0.00000  0.00001  0.00001
 *NO              0.01652  0.01297  0.00037  0.00005  0.00000  0.00000  0.01652  0.01651
 NO2              0.00002  0.00001  0.00000  0.00000  0.00000  0.00000  0.00002  0.00002
 *N2              0.28121  0.28288  0.28877  0.28892  0.28895  0.28895  0.28121  0.28122
 *O               0.00593  0.00447  0.00005  0.00000  0.00000  0.00000  0.00593  0.00593
 *OH              0.02813  0.02345  0.00148  0.00032  0.00005  0.00000  0.02813  0.02812
 *O2              0.03305  0.02824  0.00049  0.00003  0.00000  0.00000  0.03305  0.03304

  * THERMODYNAMIC PROPERTIES FITTED TO 20000.K

 NOTE. WEIGHT FRACTION OF FUEL IN TOTAL FUELS AND OF OXIDANT IN TOTAL OXIDANTS










              THEORETICAL ROCKET PERFORMANCE ASSUMING EQUILIBRIUM

           COMPOSITION DURING EXPANSION FROM INFINITE AREA COMBUSTOR

 Pin =   440.9 PSIA
 CASE = NHwang3005v1___

             REACTANT                    WT FRACTION      ENERGY      TEMP
                                          (SEE NOTE)     KJ/KG-MOL      K  
 FUEL        paraffin                     1.0000000  -1860600.000    298.150
 OXIDANT     N2O4                         0.3500000         0.000      0.000
 OXIDANT     NO                           0.3000000         0.000      0.000
 OXIDANT     NO2                          0.3500000         0.000      0.000

 O/F=    4.50000  %FUEL= 18.181818  R,EQ.RATIO= 1.141275  PHI,EQ.RATIO= 1.141275

                 CHAMBER   THROAT     EXIT     EXIT     EXIT     EXIT     EXIT     EXIT
 Pinf/P            1.0000   1.7273   1.0069   1.0226  9132.81  1571.65   553.37   261.85
 P, BAR            30.398   17.598   30.189   29.724  0.00333  0.01934  0.05493  0.11609
 T, K             3346.01  3183.71  3343.89  3339.14   916.24  1263.84  1527.09  1744.53
 RHO, KG/CU M    2.9076 0 1.7922 0 2.8899 0 2.8506 0 1.2549-3 5.2864-3 1.2426-2 2.2984-2
 H, KJ/KG         -337.69  -891.51  -344.89  -361.07 -5930.05 -5379.53 -4958.99 -4605.09
 U, KJ/KG        -1383.15 -1873.43 -1389.51 -1403.82 -6195.29 -5745.39 -5401.07 -5110.15
 G, KJ/KG        -34557.7 -33451.8 -34543.3 -34510.9 -15300.6 -18305.0 -20576.7 -22446.7
 S, KJ/(KG)(K)    10.2271  10.2271  10.2271  10.2271  10.2271  10.2271  10.2271  10.2271

 M, (1/n)          26.611   26.958   26.615   26.625   28.722   28.722   28.721   28.719
 (dLV/dLP)t      -1.03105 -1.02742 -1.03100 -1.03090 -1.00000 -1.00000 -1.00001 -1.00005
 (dLV/dLT)p        1.6021   1.5612   1.6016   1.6006   1.0000   1.0000   1.0002   1.0017
 Cp, KJ/(KG)(K)    5.4527   5.3342   5.4517   5.4494   1.5873   1.5865   1.6117   1.6500
 GAMMAs            1.1313   1.1280   1.1312   1.1311   1.2231   1.2232   1.2191   1.2136
 SON VEL,M/SEC     1087.5   1052.4   1087.1   1086.0    569.6    669.0    734.1    782.9
 MACH NUMBER        0.000    1.000    0.110    0.199    5.872    4.747    4.141    3.732

 PERFORMANCE PARAMETERS

 Ae/At                      1.0000   5.4400   3.0600   449.44   112.36   49.930   28.090
 CSTAR, M/SEC               1611.6   1611.6   1611.6   1611.6   1611.6   1611.6   1611.6
 CF                         0.6530   0.0744   0.1342   2.0752   1.9704   1.8864   1.8128
 Ivac, M/SEC                1985.4   8826.9   5038.7   3423.7   3290.7   3185.6   3094.3
 Isp, M/SEC                 1052.4    120.0    216.2   3344.4   3175.5   3040.2   2921.4


 MASS FRACTIONS

 *CO              0.19594  0.18186  0.19576  0.19536  0.05124  0.08319  0.09519  0.10115
 *CO2             0.27522  0.29735  0.27550  0.27612  0.50259  0.45238  0.43353  0.42416
 COOH             0.00001  0.00001  0.00001  0.00001  0.00000  0.00000  0.00000  0.00000
 *H               0.00051  0.00042  0.00051  0.00051  0.00000  0.00000  0.00000  0.00000
 HNO              0.00001  0.00000  0.00001  0.00001  0.00000  0.00000  0.00000  0.00000
 HO2              0.00007  0.00005  0.00007  0.00007  0.00000  0.00000  0.00000  0.00000
 *H2              0.00250  0.00230  0.00250  0.00250  0.00573  0.00343  0.00257  0.00214
 H2O              0.16083  0.16596  0.16089  0.16105  0.15149  0.17204  0.17976  0.18355
 H2O2             0.00001  0.00000  0.00001  0.00001  0.00000  0.00000  0.00000  0.00000
 *N               0.00001  0.00000  0.00001  0.00000  0.00000  0.00000  0.00000  0.00000
 *NO              0.01652  0.01297  0.01647  0.01636  0.00000  0.00000  0.00000  0.00000
 NO2              0.00002  0.00001  0.00002  0.00002  0.00000  0.00000  0.00000  0.00000
 *N2              0.28121  0.28288  0.28124  0.28129  0.28895  0.28895  0.28895  0.28895
 *O               0.00593  0.00447  0.00591  0.00587  0.00000  0.00000  0.00000  0.00000
 *OH              0.02813  0.02345  0.02807  0.02794  0.00000  0.00000  0.00000  0.00004
 *O2              0.03305  0.02824  0.03300  0.03286  0.00000  0.00000  0.00000  0.00000

  * THERMODYNAMIC PROPERTIES FITTED TO 20000.K

 NOTE. WEIGHT FRACTION OF FUEL IN TOTAL FUELS AND OF OXIDANT IN TOTAL OXIDANTS