*******************************************************************************

         NASA-GLENN CHEMICAL EQUILIBRIUM PROGRAM CEA2, FEBRUARY 5, 2004
                   BY  BONNIE MCBRIDE AND SANFORD GORDON
      REFS: NASA RP-1311, PART I, 1994 AND NASA RP-1311, PART II, 1996

 *******************************************************************************



  
 ### CEA analysis performed on Thu 02-Jun-2022 07:42:57
  
 # Problem Type: "Rocket" (Infinite Area Combustor)
  
 prob case=NHwang0206V1___9546 ro equilibrium
  
 # Pressure (1 value):
 p,bar= 10
 # Supersonic Area Ratio (11 values):
 supar= 100, 36, 25, 16, 9, 4, 3, 2.5, 2, 1.5, 1.25
  
 # Oxidizer/Fuel Wt. ratio (1 value):
 o/f= 4.5
  
 # You selected the following fuels and oxidizers:
 reac
 fuel paraffin          wt%=100.0000
 oxid N2O4              wt%= 35.0000
 oxid NO                wt%= 30.0000
 oxid NO2               wt%= 35.0000
  
 # You selected these options for output:
 # short version of output
 output short
 # Proportions of any products will be expressed as Mass Fractions.
 output massf
 # Heat will be expressed as siunits
 output siunits
  
 # Input prepared by this script:/var/www/sites/cearun.grc.nasa.gov/cgi-bin/CEARU
 N/prepareInputFile.cgi
  
 ### IMPORTANT:  The following line is the end of your CEA input file!
 end





              THEORETICAL ROCKET PERFORMANCE ASSUMING EQUILIBRIUM

           COMPOSITION DURING EXPANSION FROM INFINITE AREA COMBUSTOR

 Pin =   145.0 PSIA
 CASE = NHwang0206V1___

             REACTANT                    WT FRACTION      ENERGY      TEMP
                                          (SEE NOTE)     KJ/KG-MOL      K  
 FUEL        paraffin                     1.0000000  -1860600.000    298.150
 OXIDANT     N2O4                         0.3500000         0.000      0.000
 OXIDANT     NO                           0.3000000         0.000      0.000
 OXIDANT     NO2                          0.3500000         0.000      0.000

 O/F=    4.50000  %FUEL= 18.181818  R,EQ.RATIO= 1.141275  PHI,EQ.RATIO= 1.141275

                 CHAMBER   THROAT     EXIT     EXIT     EXIT     EXIT     EXIT     EXIT
 Pinf/P            1.0000   1.7239  1297.69   346.33   215.09   119.87   56.682   19.620
 P, BAR            10.000   5.8008  0.00771  0.02887  0.04649  0.08342  0.17642  0.50969
 T, K             3218.10  3071.81  1331.59  1688.11  1833.76  2018.41  2238.37  2496.73
 RHO, KG/CU M    9.8329-1 6.0571-1 1.9991-3 5.9080-3 8.7548-3 1.4256-2 2.7053-2 6.9004-2
 H, KJ/KG         -337.69  -875.16 -5271.88 -4696.84 -4454.07 -4127.84 -3664.09 -2925.94
 U, KJ/KG        -1354.69 -1832.84 -5657.36 -5185.58 -4985.11 -4713.00 -4316.23 -3664.57
 G, KJ/KG        -34373.9 -33364.2 -19355.4 -22551.1 -23848.8 -25475.6 -27338.2 -29332.6
 S, KJ/(KG)(K)    10.5765  10.5765  10.5765  10.5765  10.5765  10.5765  10.5765  10.5765

 M, (1/n)          26.310   26.669   28.722   28.719   28.711   28.679   28.538   28.105
 (dLV/dLP)t      -1.03505 -1.03134 -1.00000 -1.00005 -1.00019 -1.00084 -1.00403 -1.01259
 (dLV/dLT)p        1.7001   1.6586   1.0000   1.0019   1.0065   1.0270   1.1187   1.3310
 Cp, KJ/(KG)(K)    6.2244   6.1080   1.5915   1.6467   1.7074   1.9174   2.7126   4.3039
 GAMMAs            1.1257   1.1224   1.2224   1.2142   1.2072   1.1885   1.1499   1.1226
 SON VEL,M/SEC     1070.0   1036.8    686.4    770.4    800.7    834.0    866.0    910.6
 MACH NUMBER        0.000    1.000    4.576    3.833    3.584    3.301    2.978    2.499

 PERFORMANCE PARAMETERS

 Ae/At                      1.0000   100.00   36.000   25.000   16.000   9.0000   4.0000
 CSTAR, M/SEC               1592.4   1592.4   1592.4   1592.4   1592.4   1592.4   1592.4
 CF                         0.6511   1.9728   1.8543   1.8019   1.7290   1.6198   1.4288
 Ivac, M/SEC                1960.5   3264.1   3118.2   3054.4   2965.8   2832.1   2599.8
 Isp, M/SEC                 1036.8   3141.4   2952.7   2869.3   2753.2   2579.3   2275.2


 MASS FRACTIONS

 *CO              0.20465  0.19068  0.08698  0.09983  0.10301  0.10654  0.11335  0.13171
 *CO2             0.26154  0.28350  0.44643  0.42624  0.42125  0.41569  0.40501  0.37616
 *H               0.00068  0.00056  0.00000  0.00000  0.00001  0.00004  0.00009  0.00020
 HO2              0.00005  0.00003  0.00000  0.00000  0.00000  0.00000  0.00000  0.00000
 *H2              0.00274  0.00253  0.00316  0.00223  0.00201  0.00180  0.00169  0.00180
 H2O              0.15601  0.16145  0.17448  0.18270  0.18456  0.18587  0.18520  0.18041
 *NO              0.01572  0.01254  0.00000  0.00000  0.00002  0.00015  0.00081  0.00297
 NO2              0.00002  0.00001  0.00000  0.00000  0.00000  0.00000  0.00000  0.00000
 *N2              0.28159  0.28309  0.28895  0.28895  0.28894  0.28888  0.28857  0.28756
 *O               0.00780  0.00602  0.00000  0.00000  0.00000  0.00002  0.00019  0.00105
 *OH              0.03041  0.02572  0.00000  0.00004  0.00018  0.00082  0.00310  0.00851
 *O2              0.03875  0.03386  0.00000  0.00000  0.00001  0.00019  0.00200  0.00965

  * THERMODYNAMIC PROPERTIES FITTED TO 20000.K

 NOTE. WEIGHT FRACTION OF FUEL IN TOTAL FUELS AND OF OXIDANT IN TOTAL OXIDANTS










              THEORETICAL ROCKET PERFORMANCE ASSUMING EQUILIBRIUM

           COMPOSITION DURING EXPANSION FROM INFINITE AREA COMBUSTOR

 Pin =   145.0 PSIA
 CASE = NHwang0206V1___

             REACTANT                    WT FRACTION      ENERGY      TEMP
                                          (SEE NOTE)     KJ/KG-MOL      K  
 FUEL        paraffin                     1.0000000  -1860600.000    298.150
 OXIDANT     N2O4                         0.3500000         0.000      0.000
 OXIDANT     NO                           0.3000000         0.000      0.000
 OXIDANT     NO2                          0.3500000         0.000      0.000

 O/F=    4.50000  %FUEL= 18.181818  R,EQ.RATIO= 1.141275  PHI,EQ.RATIO= 1.141275

                 CHAMBER   THROAT     EXIT     EXIT     EXIT     EXIT     EXIT
 Pinf/P            1.0000   1.7239   13.282   10.295   7.4467   4.7443   3.4253
 P, BAR            10.000   5.8008  0.75288  0.97135   1.3429   2.1078   2.9195
 T, K             3218.10  3071.81  2585.26  2642.94  2716.80  2821.66  2899.59
 RHO, KG/CU M    9.8329-1 6.0571-1 9.7730-2 1.2272-1 1.6394-1 2.4535-1 3.2826-1
 H, KJ/KG         -337.69  -875.16 -2631.62 -2432.66 -2171.85 -1793.64 -1508.87
 U, KJ/KG        -1354.69 -1832.84 -3401.99 -3224.19 -2990.97 -2652.75 -2398.25
 G, KJ/KG        -34373.9 -33364.2 -29974.6 -30385.7 -30906.1 -31637.0 -32176.4
 S, KJ/(KG)(K)    10.5765  10.5765  10.5765  10.5765  10.5765  10.5765  10.5765

 M, (1/n)          26.310   26.669   27.902   27.762   27.577   27.308   27.107
 (dLV/dLP)t      -1.03505 -1.03134 -1.01588 -1.01797 -1.02056 -1.02403 -1.02645
 (dLV/dLT)p        1.7001   1.6586   1.4020   1.4443   1.4934   1.5536   1.5916
 Cp, KJ/(KG)(K)    6.2244   6.1080   4.7754   5.0394   5.3284   5.6528   5.8372
 GAMMAs            1.1257   1.1224   1.1195   1.1186   1.1181   1.1185   1.1194
 SON VEL,M/SEC     1070.0   1036.8    928.7    940.9    957.0    980.3    997.8
 MACH NUMBER        0.000    1.000    2.306    2.175    2.001    1.741    1.534

 PERFORMANCE PARAMETERS

 Ae/At                      1.0000   3.0000   2.5000   2.0000   1.5000   1.2500
 CSTAR, M/SEC               1592.4   1592.4   1592.4   1592.4   1592.4   1592.4
 CF                         0.6511   1.3451   1.2855   1.2028   1.0716   0.9611
 Ivac, M/SEC                1960.5   2501.6   2433.6   2343.0   2209.9   2111.6
 Isp, M/SEC                 1036.8   2141.9   2046.9   1915.3   1706.4   1530.5


 MASS FRACTIONS

 *CO              0.20465  0.19068  0.14023  0.14610  0.15383  0.16493  0.17314
 *CO2             0.26154  0.28350  0.36277  0.35354  0.34140  0.32395  0.31106
 *H               0.00068  0.00056  0.00024  0.00028  0.00032  0.00039  0.00044
 HO2              0.00005  0.00003  0.00000  0.00001  0.00001  0.00001  0.00002
 *H2              0.00274  0.00253  0.00188  0.00195  0.00204  0.00217  0.00228
 H2O              0.15601  0.16145  0.17798  0.17625  0.17392  0.17040  0.16768
 *NO              0.01572  0.01254  0.00406  0.00485  0.00597  0.00771  0.00912
 NO2              0.00002  0.00001  0.00000  0.00000  0.00000  0.00000  0.00000
 *N2              0.28159  0.28309  0.28705  0.28668  0.28616  0.28535  0.28469
 *O               0.00780  0.00602  0.00155  0.00194  0.00250  0.00340  0.00415
 *OH              0.03041  0.02572  0.01086  0.01248  0.01463  0.01781  0.02024
 *O2              0.03875  0.03386  0.01337  0.01592  0.01923  0.02387  0.02717

  * THERMODYNAMIC PROPERTIES FITTED TO 20000.K

 NOTE. WEIGHT FRACTION OF FUEL IN TOTAL FUELS AND OF OXIDANT IN TOTAL OXIDANTS